27

N 5.294 57.398 9.041
C 6.507 56.533 9.201
C 6.279 55.26 10.075
O 5.895 54.198 9.546
C 7.725 57.393 9.645
C 8.173 58.349 8.514
C 9.234 59.386 8.901
C 9.436 60.376 7.74
N 10.009 61.686 8.181
P 6.437 62.23 4.273
C 7.201 64.023 6.094
C 9.529 62.696 7.436
C 8.743 65.666 11.443
N 7.279 65.827 9.413
C 8.351 65.239 10.069
C 9.091 64.232 9.446
O 10.041 63.741 10.085
C 8.741 63.79 8.144
C 7.644 64.407 7.485
C 6.931 65.419 8.13
O 7.843 62.211 3.817
O 5.772 60.917 4.446
O 5.645 63.258 3.56
O 6.521 62.767 5.802
H 4.620116764063674 57.66657665200361 9.86789054071414
O 6.513005392298608 55.39000299572145 11.39003030287466
H 6.0045906466060375 54.82238912657519 11.984618346746357