18

N 19.582 44.526 1.282
C 20.437 43.851 0.325
C 20.142 44.306 -1.085
O 18.983 44.231 -1.522
C 20.205 42.329 0.424
C 21.026 41.513 -0.553
C 20.652 40.035 -0.568
O 20.321 39.496 0.522
O 20.7 39.43 -1.684
H 18.581 44.745 1.106
H 21.406 44.036 0.545
H 20.455 42.054 1.335
H 19.254 42.165 0.234
H 20.871 41.863 -1.46
H 21.974 41.571 -0.293
H 19.958342305443573 44.847631750026665 2.264303154076279
O 21.166602124926687 44.71904899752426 -1.8469350439767913
H 21.296569480401036 45.67337490665224 -1.9280309481770097