17

N 13.141 61.285 -5.744
C 13.214 62.361 -4.776
C 14.669 62.632 -4.347
O 15.544 61.754 -4.416
C 12.448 61.8 -3.569
C 12.562 60.339 -3.699
C 12.487 60.092 -5.178
H 12.796 63.206 -5.133
H 12.862 62.129 -2.713
H 11.489 62.101 -3.596
H 13.434 60.009 -3.329
H 11.811 59.874 -3.224
H 12.982 59.265 -5.438
H 11.54 60.029 -5.493
H 13.56026957544852 61.44713940613048 -6.747954100585715
O 14.917578216425929 63.86470345030891 -3.8783689362462006
H 14.884083736654947 63.98501524339503 -2.9199279144460726