25
Substrate 17
 O   -5.658  -0.052   0.385
 C   -4.555   0.470   0.381
 O   -4.402   1.577   0.872
 C   -3.390  -0.249  -0.219
 O   -3.541  -1.353  -0.702
 C   -2.066   0.377  -0.224
 C   -1.024  -0.266  -0.761
 C    0.338   0.379  -0.766
 C    1.334  -0.545  -0.111
 O    0.972  -1.620   0.317
 C    2.744  -0.141   0.008
 C    3.670  -0.995   0.615
 C    4.990  -0.610   0.723
 C    5.398   0.619   0.234
 C    4.487   1.470  -0.368
 C    3.165   1.096  -0.489
 H   -1.932   1.359   0.206
 H   -1.158  -1.248  -1.191
 H    0.645   0.573  -1.794
 H    0.298   1.318  -0.215
 H    3.353  -1.954   0.998
 H    5.707  -1.268   1.191
 H    6.433   0.915   0.322
 H    4.813   2.427  -0.748
 H    2.456   1.761  -0.960
