12
Substrate 8
 O    0.000   1.316  -0.422
 C   -0.000  -0.026   0.071
 C   -1.249  -0.753  -0.431
Cl   -2.718   0.016   0.279
 C    1.249  -0.753  -0.431
Cl    2.718   0.016   0.279
 H    0.000   1.259  -1.387
 H   -0.000  -0.013   1.161
 H   -1.295  -0.689  -1.518
 H   -1.206  -1.800  -0.130
 H    1.206  -1.800  -0.130
 H    1.295  -0.689  -1.518
