12
test.xyz
C          0.51200       -0.16116        1.36850
H          0.61630       -1.20279        1.58992
C          1.88354        0.52890        1.48803
H          1.77959        1.57016        1.26471
H          2.25534        0.41325        2.48467
H          2.56865        0.08274        0.79776
C         -0.47327        0.47910        2.36393
O         -1.52621        1.02875        1.94828
O         -0.19067        0.44893        3.76541
H         -0.89814        0.88664        4.24446
H         -1.20422        0.42046       -0.19278
N          0.00000        0.00000        0.00000
